# generated using pymatgen
data_LaMgTaFeO6
_symmetry_space_group_name_H-M   'P 1'
_cell_length_a   5.45426983
_cell_length_b   8.03275811
_cell_length_c   5.61876415
_cell_angle_alpha   89.97375852
_cell_angle_beta   90.00376430
_cell_angle_gamma   90.28206795
_symmetry_Int_Tables_number   1
_chemical_formula_structural   LaMgTaFeO6
_chemical_formula_sum   'La2 Mg2 Ta2 Fe2 O12'
_cell_volume   246.17095006
_cell_formula_units_Z   2
loop_
 _symmetry_equiv_pos_site_id
 _symmetry_equiv_pos_as_xyz
  1  'x, y, z'
loop_
 _atom_site_type_symbol
 _atom_site_label
 _atom_site_symmetry_multiplicity
 _atom_site_fract_x
 _atom_site_fract_y
 _atom_site_fract_z
 _atom_site_occupancy
  La  La0  1  0.99217100  0.24985500  0.04893900  1
  La  La1  1  0.49205400  0.74977400  0.45132900  1
  Mg  Mg2  1  0.52592500  0.25695400  0.55377300  1
  Mg  Mg3  1  0.02582500  0.75713700  0.94645300  1
  Ta  Ta4  1  0.00266300  0.49809000  0.50970800  1
  Ta  Ta5  1  0.50279500  0.99814000  0.99026600  1
  Fe  Fe6  1  0.49899200  0.49911900  0.00438700  1
  Fe  Fe7  1  0.99882300  0.99891700  0.49552500  1
  O  O8  1  0.64729200  0.76933400  0.03518500  1
  O  O9  1  0.14675000  0.26916600  0.46518500  1
  O  O10  1  0.19460500  0.93862700  0.18364300  1
  O  O11  1  0.69433100  0.43881900  0.31628100  1
  O  O12  1  0.16421800  0.57087900  0.20346100  1
  O  O13  1  0.66439400  0.07097400  0.29635600  1
  O  O14  1  0.90205100  0.73434300  0.56662400  1
  O  O15  1  0.40169400  0.23417000  0.93293400  1
  O  O16  1  0.28185300  0.55723900  0.71630800  1
  O  O17  1  0.78203200  0.05769700  0.78373500  1
  O  O18  1  0.29095300  0.92528800  0.72480900  1
  O  O19  1  0.79057700  0.42548100  0.77510000  1
