# generated using pymatgen
data_Y2(NiO3)3
_symmetry_space_group_name_H-M   'P 1'
_cell_length_a   5.17362054
_cell_length_b   15.98554500
_cell_length_c   7.48197750
_cell_angle_alpha   90.00000000
_cell_angle_beta   90.00792532
_cell_angle_gamma   90.00000000
_symmetry_Int_Tables_number   1
_chemical_formula_structural   Y2(NiO3)3
_chemical_formula_sum   'Y8 Ni12 O36'
_cell_volume   618.78305705
_cell_formula_units_Z   4
loop_
 _symmetry_equiv_pos_site_id
 _symmetry_equiv_pos_as_xyz
  1  'x, y, z'
loop_
 _atom_site_type_symbol
 _atom_site_label
 _atom_site_symmetry_multiplicity
 _atom_site_fract_x
 _atom_site_fract_y
 _atom_site_fract_z
 _atom_site_occupancy
  Y  Y0  1  0.48416500  0.48551500  0.74998600  1
  Y  Y1  1  0.48071800  0.81149200  0.74999900  1
  Y  Y2  1  0.01928200  0.31149200  0.75000100  1
  Y  Y3  1  0.01583500  0.98551500  0.75001400  1
  Y  Y4  1  0.51928200  0.18850800  0.25000100  1
  Y  Y5  1  0.51583500  0.51448500  0.25001400  1
  Y  Y6  1  0.98416500  0.01448500  0.24998600  1
  Y  Y7  1  0.98071800  0.68850800  0.24999900  1
  Ni  Ni8  1  0.00236500  0.16559600  0.99790700  1
  Ni  Ni9  1  0.00000000  0.50000000  0.00000000  1
  Ni  Ni10  1  0.99763500  0.83440400  0.00209300  1
  Ni  Ni11  1  0.50000000  0.00000000  0.50000000  1
  Ni  Ni12  1  0.50236500  0.33440400  0.49790700  1
  Ni  Ni13  1  0.49763500  0.66559600  0.50209300  1
  Ni  Ni14  1  0.00243200  0.16557000  0.50212300  1
  Ni  Ni15  1  0.00000000  0.50000000  0.50000000  1
  Ni  Ni16  1  0.99756800  0.83443000  0.49787700  1
  Ni  Ni17  1  0.50000000  0.00000000  0.00000000  1
  Ni  Ni18  1  0.50243200  0.33443000  0.00212200  1
  Ni  Ni19  1  0.49756800  0.66557000  0.99787700  1
  O  O20  1  0.71002300  0.09520300  0.43757800  1
  O  O21  1  0.68630700  0.43711100  0.47414100  1
  O  O22  1  0.69659300  0.76540800  0.45303300  1
  O  O23  1  0.80340700  0.26540800  0.04696700  1
  O  O24  1  0.78997700  0.59520300  0.06242200  1
  O  O25  1  0.81369300  0.93711100  0.02585900  1
  O  O26  1  0.30340700  0.23459200  0.54696700  1
  O  O27  1  0.31369300  0.56288900  0.52585900  1
  O  O28  1  0.28997700  0.90479700  0.56242200  1
  O  O29  1  0.18630700  0.06288900  0.97414100  1
  O  O30  1  0.21002300  0.40479700  0.93757800  1
  O  O31  1  0.19659300  0.73459200  0.95303300  1
  O  O32  1  0.18632800  0.06285500  0.52587300  1
  O  O33  1  0.21003100  0.40479500  0.56244200  1
  O  O34  1  0.19662700  0.73462300  0.54681500  1
  O  O35  1  0.30337300  0.23462300  0.95318500  1
  O  O36  1  0.31367200  0.56285500  0.97412700  1
  O  O37  1  0.28996900  0.90479500  0.93755800  1
  O  O38  1  0.80337300  0.26537700  0.45318500  1
  O  O39  1  0.78996900  0.59520500  0.43755800  1
  O  O40  1  0.81367200  0.93714500  0.47412700  1
  O  O41  1  0.71003100  0.09520500  0.06244200  1
  O  O42  1  0.68632800  0.43714500  0.02587300  1
  O  O43  1  0.69662700  0.76537700  0.04681500  1
  O  O44  1  0.09525700  0.15779100  0.25004700  1
  O  O45  1  0.07656900  0.49621200  0.24999200  1
  O  O46  1  0.09734000  0.82909600  0.24998300  1
  O  O47  1  0.40266000  0.32909600  0.25001700  1
  O  O48  1  0.40474300  0.65779100  0.24995300  1
  O  O49  1  0.42343100  0.99621200  0.25000800  1
  O  O50  1  0.90266000  0.17090400  0.75001700  1
  O  O51  1  0.92343100  0.50378800  0.75000800  1
  O  O52  1  0.90474300  0.84220900  0.74995300  1
  O  O53  1  0.57656900  0.00378800  0.74999200  1
  O  O54  1  0.59525700  0.34220900  0.75004700  1
  O  O55  1  0.59734000  0.67090400  0.74998300  1
