# generated using pymatgen
data_CaCrP2O7
_symmetry_space_group_name_H-M   'P 1'
_cell_length_a   6.51256254
_cell_length_b   12.25041252
_cell_length_c   7.12405626
_cell_angle_alpha   99.79634004
_cell_angle_beta   84.58633901
_cell_angle_gamma   84.99175749
_symmetry_Int_Tables_number   1
_chemical_formula_structural   CaCrP2O7
_chemical_formula_sum   'Ca4 Cr4 P8 O28'
_cell_volume   554.47981047
_cell_formula_units_Z   4
loop_
 _symmetry_equiv_pos_site_id
 _symmetry_equiv_pos_as_xyz
  1  'x, y, z'
loop_
 _atom_site_type_symbol
 _atom_site_label
 _atom_site_symmetry_multiplicity
 _atom_site_fract_x
 _atom_site_fract_y
 _atom_site_fract_z
 _atom_site_occupancy
  Ca  Ca0  1  0.84794000  0.13840600  0.28540400  1
  Ca  Ca1  1  0.84805600  0.63839000  0.78545000  1
  Ca  Ca2  1  0.15216000  0.36159700  0.21464800  1
  Ca  Ca3  1  0.15188200  0.86161300  0.71458900  1
  Cr  Cr4  1  0.66491900  0.55087300  0.31245500  1
  Cr  Cr5  1  0.33558400  0.94931500  0.18735200  1
  Cr  Cr6  1  0.66458800  0.05076900  0.81226700  1
  Cr  Cr7  1  0.33510000  0.44904300  0.68764300  1
  P  P8  1  0.15930800  0.11638500  0.85658600  1
  P  P9  1  0.15946300  0.61632100  0.35652900  1
  P  P10  1  0.84055900  0.38362300  0.64344600  1
  P  P11  1  0.84058400  0.88367800  0.14345100  1
  P  P12  1  0.63552100  0.31798200  0.99442300  1
  P  P13  1  0.63544100  0.81796800  0.49446500  1
  P  P14  1  0.36453100  0.18204100  0.50562200  1
  P  P15  1  0.36455800  0.68207400  0.00556000  1
  O  O16  1  0.77733200  0.30241500  0.78794900  1
  O  O17  1  0.77721600  0.80248300  0.28796600  1
  O  O18  1  0.22264500  0.19755100  0.71203500  1
  O  O19  1  0.22272900  0.69754600  0.21202300  1
  O  O20  1  0.98725600  0.04812700  0.77884500  1
  O  O21  1  0.98746000  0.54802500  0.27873800  1
  O  O22  1  0.01261600  0.45188300  0.72126100  1
  O  O23  1  0.01265000  0.95195000  0.22113200  1
  O  O24  1  0.58241200  0.13394500  0.53028700  1
  O  O25  1  0.58243200  0.63399700  0.03023600  1
  O  O26  1  0.41761900  0.36605000  0.96975000  1
  O  O27  1  0.41752700  0.86598600  0.46982900  1
  O  O28  1  0.35638600  0.30327200  0.46921700  1
  O  O29  1  0.35630000  0.80329500  0.96917900  1
  O  O30  1  0.64357000  0.19672800  0.03080700  1
  O  O31  1  0.64370300  0.69668600  0.53076400  1
  O  O32  1  0.91193200  0.30818600  0.45242500  1
  O  O33  1  0.91179700  0.80821200  0.95243300  1
  O  O34  1  0.08802100  0.19183100  0.04759500  1
  O  O35  1  0.08814400  0.69174900  0.54755000  1
  O  O36  1  0.65270600  0.46940200  0.64088700  1
  O  O37  1  0.65275300  0.96947000  0.14077500  1
  O  O38  1  0.34717000  0.03059900  0.85922800  1
  O  O39  1  0.34735400  0.53060000  0.35914800  1
  O  O40  1  0.25559100  0.10698000  0.36088500  1
  O  O41  1  0.25557400  0.60692900  0.86090600  1
  O  O42  1  0.74453000  0.39300200  0.13910200  1
  O  O43  1  0.74437800  0.89301900  0.63915800  1
