data_image0
_chemical_formula_structural       C4Si4
_chemical_formula_sum              "C4 Si4"
_cell_length_a       2.73343
_cell_length_b       2.69578
_cell_length_c       5.46547
_cell_angle_alpha    90
_cell_angle_beta     95.27
_cell_angle_gamma    90

_space_group_name_H-M_alt    "P 1"
_space_group_IT_number       1

loop_
  _space_group_symop_operation_xyz
  'x, y, z'

loop_
  _atom_site_type_symbol
  _atom_site_label
  _atom_site_symmetry_multiplicity
  _atom_site_fract_x
  _atom_site_fract_y
  _atom_site_fract_z
  _atom_site_occupancy
  C   C1        1.0  0.27560  0.50000  0.63638  1.0000
  C   C2        1.0  0.72440  0.50000  0.36362  1.0000
  C   C3        1.0  0.77560  0.00000  0.63638  1.0000
  C   C4        1.0  0.22440  0.00000  0.36362  1.0000
  Si  Si1       1.0  0.26840  0.00000  0.59860  1.0000
  Si  Si2       1.0  0.73160  0.00000  0.40140  1.0000
  Si  Si3       1.0  0.76840  0.50000  0.59860  1.0000
  Si  Si4       1.0  0.23160  0.50000  0.40140  1.0000
