# generated using pymatgen
data_Li2Cr2NiO6
_symmetry_space_group_name_H-M   'P 1'
_cell_length_a   7.83947528
_cell_length_b   7.83947528
_cell_length_c   5.93029735
_cell_angle_alpha   78.20596488
_cell_angle_beta   78.20596488
_cell_angle_gamma   67.90198001
_symmetry_Int_Tables_number   1
_chemical_formula_structural   Li2Cr2NiO6
_chemical_formula_sum   'Li6 Cr6 Ni3 O18'
_cell_volume   327.27614914
_cell_formula_units_Z   3
loop_
 _symmetry_equiv_pos_site_id
 _symmetry_equiv_pos_as_xyz
  1  'x, y, z'
loop_
 _atom_site_type_symbol
 _atom_site_label
 _atom_site_symmetry_multiplicity
 _atom_site_fract_x
 _atom_site_fract_y
 _atom_site_fract_z
 _atom_site_occupancy
  Li  Li0  1  0.48885100  0.83381500  0.16799400  1
  Li  Li1  1  0.83381500  0.48885100  0.16799400  1
  Li  Li2  1  0.16506400  0.83493600  0.50000000  1
  Li  Li3  1  0.83493600  0.16506400  0.50000000  1
  Li  Li4  1  0.16618600  0.51114900  0.83200600  1
  Li  Li5  1  0.51114900  0.16618500  0.83200600  1
  Cr  Cr6  1  0.17144000  0.17144000  0.67615700  1
  Cr  Cr7  1  0.82856000  0.82856000  0.32384300  1
  Cr  Cr8  1  0.49770200  0.83443600  0.67397100  1
  Cr  Cr9  1  0.83443600  0.49770200  0.67397100  1
  Cr  Cr10  1  0.16556400  0.50229800  0.32602900  1
  Cr  Cr11  1  0.50229800  0.16556400  0.32602900  1
  Ni  Ni12  1  0.16168800  0.83831200  0.00000000  1
  Ni  Ni13  1  0.50000000  0.50000000  0.00000000  1
  Ni  Ni14  1  0.83831200  0.16168800  0.00000000  1
  O  O15  1  0.98653900  0.98653900  0.22512000  1
  O  O16  1  0.65558600  0.99501500  0.55908200  1
  O  O17  1  0.99501500  0.65558600  0.55908200  1
  O  O18  1  0.01346100  0.01346100  0.77488000  1
  O  O19  1  0.65443400  0.00336700  0.10936200  1
  O  O20  1  0.00336700  0.65443400  0.10936200  1
  O  O21  1  0.34441400  0.00498500  0.44091800  1
  O  O22  1  0.67122600  0.67122600  0.44953100  1
  O  O23  1  0.00498500  0.34441400  0.44091800  1
  O  O24  1  0.34556600  0.99663300  0.89063800  1
  O  O25  1  0.64891600  0.64891600  0.91412500  1
  O  O26  1  0.99663300  0.34556600  0.89063800  1
  O  O27  1  0.30950200  0.67197700  0.22532100  1
  O  O28  1  0.67197700  0.30950200  0.22532100  1
  O  O29  1  0.32877400  0.32877400  0.55046900  1
  O  O30  1  0.32802300  0.69049800  0.77467900  1
  O  O31  1  0.69049800  0.32802300  0.77467900  1
  O  O32  1  0.35108400  0.35108400  0.08587500  1
