data_image0
_chemical_formula_structural       Mo6S12
_chemical_formula_sum              "Mo6 S12"
_cell_length_a       13.9364
_cell_length_b       2.86748
_cell_length_c       4.97441
_cell_angle_alpha    90
_cell_angle_beta     88.3
_cell_angle_gamma    90

_space_group_name_H-M_alt    "P 1"
_space_group_IT_number       1

loop_
  _space_group_symop_operation_xyz
  'x, y, z'

loop_
  _atom_site_type_symbol
  _atom_site_label
  _atom_site_symmetry_multiplicity
  _atom_site_fract_x
  _atom_site_fract_y
  _atom_site_fract_z
  _atom_site_occupancy
  Mo  Mo1       1.0  0.00000  0.00000  0.00000  1.0000
  Mo  Mo2       1.0  0.50000  0.50000  0.00000  1.0000
  Mo  Mo3       1.0  0.65800  0.00000  0.52300  1.0000
  Mo  Mo4       1.0  0.34200  0.00000  0.47700  1.0000
  Mo  Mo5       1.0  0.15800  0.50000  0.52300  1.0000
  Mo  Mo6       1.0  0.84200  0.50000  0.47700  1.0000
  S   S1        1.0  0.94200  0.00000  0.66100  1.0000
  S   S2        1.0  0.05800  0.00000  0.33900  1.0000
  S   S3        1.0  0.44200  0.50000  0.66100  1.0000
  S   S4        1.0  0.55800  0.50000  0.33900  1.0000
  S   S5        1.0  0.58800  0.00000  0.81700  1.0000
  S   S6        1.0  0.41200  0.00000  0.18300  1.0000
  S   S7        1.0  0.08800  0.50000  0.81700  1.0000
  S   S8        1.0  0.91200  0.50000  0.18300  1.0000
  S   S9        1.0  0.76100  0.00000  0.23000  1.0000
  S   S10       1.0  0.23900  0.00000  0.77000  1.0000
  S   S11       1.0  0.26100  0.50000  0.23000  1.0000
  S   S12       1.0  0.73900  0.50000  0.77000  1.0000
