data_image0
_chemical_formula_structural       S8Mo4
_chemical_formula_sum              "S8 Mo4"
_cell_length_a       5.6803
_cell_length_b       3.66168
_cell_length_c       6.36882
_cell_angle_alpha    90
_cell_angle_beta     90
_cell_angle_gamma    90

_space_group_name_H-M_alt    "P 1"
_space_group_IT_number       1

loop_
  _space_group_symop_operation_xyz
  'x, y, z'

loop_
  _atom_site_type_symbol
  _atom_site_label
  _atom_site_symmetry_multiplicity
  _atom_site_fract_x
  _atom_site_fract_y
  _atom_site_fract_z
  _atom_site_occupancy
  S   S1        1.0  0.20000  0.25000  0.08000  1.0000
  S   S2        1.0  0.80000  0.25000  0.08000  1.0000
  S   S3        1.0  0.20000  0.75000  0.92000  1.0000
  S   S4        1.0  0.80000  0.75000  0.92000  1.0000
  S   S5        1.0  0.70000  0.75000  0.58000  1.0000
  S   S6        1.0  0.30000  0.75000  0.58000  1.0000
  S   S7        1.0  0.70000  0.25000  0.42000  1.0000
  S   S8        1.0  0.30000  0.25000  0.42000  1.0000
  Mo  Mo1       1.0  0.00000  0.25000  0.64500  1.0000
  Mo  Mo2       1.0  0.00000  0.75000  0.35500  1.0000
  Mo  Mo3       1.0  0.50000  0.75000  0.14500  1.0000
  Mo  Mo4       1.0  0.50000  0.25000  0.85500  1.0000
