data_image0
_chemical_formula_structural       Mo4S8
_chemical_formula_sum              "Mo4 S8"
_cell_length_a       9.36029
_cell_length_b       5.16494
_cell_length_c       2.74003
_cell_angle_alpha    90
_cell_angle_beta     90
_cell_angle_gamma    90

_space_group_name_H-M_alt    "P 1"
_space_group_IT_number       1

loop_
  _space_group_symop_operation_xyz
  'x, y, z'

loop_
  _atom_site_type_symbol
  _atom_site_label
  _atom_site_symmetry_multiplicity
  _atom_site_fract_x
  _atom_site_fract_y
  _atom_site_fract_z
  _atom_site_occupancy
  Mo  Mo1       1.0  0.11000  0.39500  0.25000  1.0000
  Mo  Mo2       1.0  0.89000  0.60500  0.75000  1.0000
  Mo  Mo3       1.0  0.61000  0.10500  0.75000  1.0000
  Mo  Mo4       1.0  0.39000  0.89500  0.25000  1.0000
  S   S1        1.0  0.06550  0.82950  0.25000  1.0000
  S   S2        1.0  0.93450  0.17050  0.75000  1.0000
  S   S3        1.0  0.56550  0.67050  0.75000  1.0000
  S   S4        1.0  0.43450  0.32950  0.25000  1.0000
  S   S5        1.0  0.71500  0.35200  0.25000  1.0000
  S   S6        1.0  0.28500  0.64800  0.75000  1.0000
  S   S7        1.0  0.21500  0.14800  0.75000  1.0000
  S   S8        1.0  0.78500  0.85200  0.25000  1.0000
