data_image0
_chemical_formula_structural       Mo2S4
_chemical_formula_sum              "Mo2 S4"
_cell_length_a       4.69973
_cell_length_b       4.69973
_cell_length_c       2.99871
_cell_angle_alpha    90
_cell_angle_beta     90
_cell_angle_gamma    90

_space_group_name_H-M_alt    "P 1"
_space_group_IT_number       1

loop_
  _space_group_symop_operation_xyz
  'x, y, z'

loop_
  _atom_site_type_symbol
  _atom_site_label
  _atom_site_symmetry_multiplicity
  _atom_site_fract_x
  _atom_site_fract_y
  _atom_site_fract_z
  _atom_site_occupancy
  Mo  Mo1       1.0  0.00000  0.00000  0.00000  1.0000
  Mo  Mo2       1.0  0.50000  0.50000  0.50000  1.0000
  S   S1        1.0  0.30613  0.30613  0.00000  1.0000
  S   S2        1.0  0.69387  0.69387  0.00000  1.0000
  S   S3        1.0  0.19387  0.80613  0.50000  1.0000
  S   S4        1.0  0.80613  0.19387  0.50000  1.0000
