# generated using pymatgen
data_KVPCO7
_symmetry_space_group_name_H-M   'P 1'
_cell_length_a   6.28088402
_cell_length_b   10.75281708
_cell_length_c   11.53595136
_cell_angle_alpha   116.25604580
_cell_angle_beta   90.00796728
_cell_angle_gamma   89.99775838
_symmetry_Int_Tables_number   1
_chemical_formula_structural   KVPCO7
_chemical_formula_sum   'K4 V4 P4 C4 O28'
_cell_volume   698.72240000
_cell_formula_units_Z   4
loop_
 _symmetry_equiv_pos_site_id
 _symmetry_equiv_pos_as_xyz
  1  'x, y, z'
loop_
 _atom_site_type_symbol
 _atom_site_label
 _atom_site_symmetry_multiplicity
 _atom_site_fract_x
 _atom_site_fract_y
 _atom_site_fract_z
 _atom_site_occupancy
  K  K0  1  0.39345900  0.22645400  0.21743200  1
  K  K1  1  0.39313400  0.72646700  0.21757500  1
  K  K2  1  0.89350900  0.77357000  0.78256200  1
  K  K3  1  0.89315300  0.27353000  0.78245200  1
  V  V4  1  0.77783400  0.06557100  0.35189400  1
  V  V5  1  0.27781500  0.93449100  0.64816100  1
  V  V6  1  0.77776800  0.56563300  0.35182500  1
  V  V7  1  0.27782800  0.43434200  0.64817700  1
  P  P8  1  0.27192500  0.58479700  0.44867300  1
  P  P9  1  0.27192400  0.08478900  0.44859900  1
  P  P10  1  0.77191700  0.41520700  0.55134200  1
  P  P11  1  0.77189100  0.91520200  0.55137500  1
  C  C12  1  0.74610800  0.41675600  0.12406900  1
  C  C13  1  0.74617900  0.91646500  0.12409500  1
  C  C14  1  0.24613400  0.58321700  0.87593400  1
  C  C15  1  0.24624300  0.08354500  0.87589700  1
  O  O16  1  0.22959600  0.15893100  0.99199900  1
  O  O17  1  0.22940800  0.65850200  0.99211800  1
  O  O18  1  0.72963800  0.84107000  0.00797400  1
  O  O19  1  0.72940900  0.34146700  0.00788000  1
  O  O20  1  0.75278000  0.55645900  0.17976900  1
  O  O21  1  0.75286600  0.05616200  0.17969600  1
  O  O22  1  0.25285300  0.44351300  0.82023500  1
  O  O23  1  0.25298800  0.94384200  0.82030900  1
  O  O24  1  0.75521500  0.37388100  0.21728100  1
  O  O25  1  0.75507100  0.87382200  0.21747700  1
  O  O26  1  0.25522700  0.62609300  0.78272300  1
  O  O27  1  0.25515100  0.12621700  0.78253000  1
  O  O28  1  0.07407700  0.56776800  0.35878000  1
  O  O29  1  0.07422900  0.06747000  0.35854300  1
  O  O30  1  0.57411900  0.43223900  0.64124000  1
  O  O31  1  0.57427900  0.93257100  0.64146800  1
  O  O32  1  0.46263800  0.56793300  0.35790300  1
  O  O33  1  0.46274300  0.06813100  0.35797200  1
  O  O34  1  0.96269200  0.43201000  0.64208300  1
  O  O35  1  0.96285100  0.93186600  0.64197200  1
  O  O36  1  0.76558500  0.27269400  0.43501000  1
  O  O37  1  0.76515400  0.77274600  0.43508100  1
  O  O38  1  0.26571100  0.72733700  0.56498700  1
  O  O39  1  0.26519100  0.22725000  0.56490700  1
  O  O40  1  0.26864400  0.46510800  0.48769000  1
  O  O41  1  0.26891500  0.96503000  0.48756000  1
  O  O42  1  0.76864200  0.53489800  0.51233200  1
  O  O43  1  0.76890800  0.03495900  0.51242100  1
