# generated using pymatgen
data_Zn(NiO2)2
_symmetry_space_group_name_H-M   'P 1'
_cell_length_a   5.89618627
_cell_length_b   5.90335058
_cell_length_c   23.50044245
_cell_angle_alpha   59.84454838
_cell_angle_beta   60.61260492
_cell_angle_gamma   60.16127933
_symmetry_Int_Tables_number   1
_chemical_formula_structural   Zn(NiO2)2
_chemical_formula_sum   'Zn8 Ni16 O32'
_cell_volume   581.05068403
_cell_formula_units_Z   8
loop_
 _symmetry_equiv_pos_site_id
 _symmetry_equiv_pos_as_xyz
  1  'x, y, z'
loop_
 _atom_site_type_symbol
 _atom_site_label
 _atom_site_symmetry_multiplicity
 _atom_site_fract_x
 _atom_site_fract_y
 _atom_site_fract_z
 _atom_site_occupancy
  Zn  Zn0  1  0.14057700  0.12267200  0.02851600  1
  Zn  Zn1  1  0.99841800  0.50064600  0.12530600  1
  Zn  Zn2  1  0.13836900  0.11770800  0.28170900  1
  Zn  Zn3  1  0.00012000  0.50026400  0.37495200  1
  Zn  Zn4  1  0.99945200  0.49956200  0.62530000  1
  Zn  Zn5  1  0.50025200  0.50214400  0.49903700  1
  Zn  Zn6  1  0.99844000  0.50107800  0.87482600  1
  Zn  Zn7  1  0.50052100  0.49826200  0.75071700  1
  Ni  Ni8  1  0.49748200  0.50201100  0.12529200  1
  Ni  Ni9  1  0.49977000  0.50113200  0.24972500  1
  Ni  Ni10  1  0.49812700  0.99976000  0.12544000  1
  Ni  Ni11  1  0.12936500  0.11855700  0.53328300  1
  Ni  Ni12  1  0.50437600  0.49793000  0.37365700  1
  Ni  Ni13  1  0.86446800  0.88170000  0.21855000  1
  Ni  Ni14  1  0.13239500  0.11985300  0.78185600  1
  Ni  Ni15  1  0.50309400  0.00438400  0.37378100  1
  Ni  Ni16  1  0.49977700  0.50009400  0.62521800  1
  Ni  Ni17  1  0.87112000  0.88055000  0.46697900  1
  Ni  Ni18  1  0.49957700  0.99911700  0.62525100  1
  Ni  Ni19  1  0.49944200  0.99625100  0.87574500  1
  Ni  Ni20  1  0.49938300  0.50126900  0.87576100  1
  Ni  Ni21  1  0.87056600  0.88018000  0.71740900  1
  Ni  Ni22  1  0.49982500  0.49841300  0.00086100  1
  Ni  Ni23  1  0.86398200  0.87890800  0.96959100  1
  O  O24  1  0.28094700  0.25757000  0.06288100  1
  O  O25  1  0.27863700  0.25307500  0.17865400  1
  O  O26  1  0.28244400  0.71002900  0.06276900  1
  O  O27  1  0.72796400  0.26316100  0.06198800  1
  O  O28  1  0.26271300  0.74283700  0.18549300  1
  O  O29  1  0.28545900  0.25327400  0.31424700  1
  O  O30  1  0.71095800  0.29067800  0.18803300  1
  O  O31  1  0.27884100  0.25437500  0.43111500  1
  O  O32  1  0.28522000  0.70536400  0.31325300  1
  O  O33  1  0.71876300  0.74821500  0.07129600  1
  O  O34  1  0.72913000  0.25406300  0.31619500  1
  O  O35  1  0.72064900  0.74336500  0.18729400  1
  O  O36  1  0.27082700  0.24309200  0.56776600  1
  O  O37  1  0.27026100  0.75326500  0.42876000  1
  O  O38  1  0.72976100  0.28139500  0.43234000  1
  O  O39  1  0.27023200  0.24606500  0.68401500  1
  O  O40  1  0.26916800  0.71541000  0.56778500  1
  O  O41  1  0.72414300  0.74560900  0.31911300  1
  O  O42  1  0.72362700  0.24591300  0.57061400  1
  O  O43  1  0.72824300  0.76291400  0.43139100  1
  O  O44  1  0.27745900  0.75300900  0.67938000  1
  O  O45  1  0.26509500  0.24141400  0.81613600  1
  O  O46  1  0.73107200  0.28389000  0.68200800  1
  O  O47  1  0.28462800  0.25520700  0.92614900  1
  O  O48  1  0.26522300  0.72887000  0.81615000  1
  O  O49  1  0.72325500  0.75638500  0.56675900  1
  O  O50  1  0.75078300  0.24328500  0.81571300  1
  O  O51  1  0.73044400  0.75780100  0.68188900  1
  O  O52  1  0.26974500  0.73132000  0.94180900  1
  O  O53  1  0.71554900  0.28523900  0.93926100  1
  O  O54  1  0.71409500  0.74947700  0.82175300  1
  O  O55  1  0.71576800  0.74198800  0.93922500  1
